624
26.343 26.343 26.343 90 90 90
CU -13.171 -7.516 7.516
CU -13.171 -5.657 5.656
CU -5.657 -13.171 5.656
CU -7.516 -13.171 7.516
CU -5.657 -7.516 -0.001
CU -7.516 -0.001 -5.657
CU -0.001 -7.516 -5.657
CU -0.001 -5.657 -7.516
CU -13.171 7.516 -7.516
CU -5.657 5.656 -13.171
CU -7.516 -5.657 -0.001
CU -13.171 -7.516 -7.516
CU -7.516 -13.171 -7.516
CU -13.171 -5.657 -5.657
CU -5.657 -0.001 7.516
CU -7.516 -0.001 5.656
CU -0.001 -5.657 7.516
CU -0.001 7.516 5.656
CU -5.657 7.516 -0.001
CU -7.516 5.656 -0.001
CU -0.001 7.516 -5.657
CU -5.657 -0.001 -7.516
CU -5.657 -13.171 -5.657
CU -13.171 7.516 7.516
CU -13.171 5.656 5.656
CU -0.001 -7.516 5.656
CU 5.656 -13.171 5.656
CU 7.516 -0.001 5.656
CU 5.656 -7.516 -0.001
CU 7.516 -5.657 -0.001
CU 5.656 -0.001 -7.516
CU 5.656 -5.657 -13.171
CU 5.656 -0.001 7.516
CU 7.516 5.656 -0.001
CU 5.656 7.516 -0.001
CU -0.001 5.656 7.516
CU 7.516 -13.171 7.516
CU 7.516 -13.171 -7.516
CU 5.656 -13.171 -5.657
CU 7.516 -0.001 -5.657
CU -0.001 5.656 -7.516
CU 7.516 7.516 -13.171
CU 5.656 5.656 -13.171
CU -13.171 5.656 -5.657
CU 7.516 -7.516 -13.171
CU -7.516 -7.516 -13.171
CU -7.516 7.516 -13.171
CU -5.657 -5.657 -13.171
C1 1.809 -7.819 7.818
C1 5.353 -7.819 11.362
C1 5.353 -11.361 7.818
C1 7.818 -11.361 5.353
C1 11.362 -7.819 5.353
C1 11.362 -5.353 7.818
C1 7.818 -7.819 1.809
C1 5.353 -5.353 1.809
C1 5.353 -1.809 5.353
C1 7.818 -1.809 7.818
C1 1.809 -5.353 5.353
C1 7.818 -5.353 11.362
C1 1.809 -7.819 -7.819
C1 5.353 -7.819 -11.361
C1 5.353 -11.361 -7.819
C1 7.818 -11.361 -5.353
C1 11.362 -7.819 -5.353
C1 11.362 -5.353 -7.819
C1 7.818 -7.819 -1.809
C1 5.353 -5.353 -1.809
C1 5.353 -1.809 -5.353
C1 7.818 -1.809 -7.819
C1 1.809 -5.353 -5.353
C1 7.818 -5.353 -11.361
C1 1.809 7.818 -7.819
C1 5.353 7.818 -11.361
C1 5.353 11.362 -7.819
C1 7.818 11.362 -5.353
C1 11.362 7.818 -5.353
C1 11.362 5.353 -7.819
C1 7.818 7.818 -1.809
C1 5.353 5.353 -1.809
C1 5.353 1.809 -5.353
C1 7.818 1.809 -7.819
C1 1.809 5.353 -5.353
C1 7.818 5.353 -11.361
C1 1.809 7.818 7.818
C1 5.353 7.818 11.362
C1 5.353 11.362 7.818
C1 7.818 11.362 5.353
C1 11.362 7.818 5.353
C1 11.362 5.353 7.818
C1 7.818 7.818 1.809
C1 5.353 5.353 1.809
C1 5.353 1.809 5.353
C1 7.818 1.809 7.818
C1 1.809 5.353 5.353
C1 7.818 5.353 11.362
C1 -1.809 -7.819 7.818
C1 -5.353 -7.819 11.362
C1 -5.353 -11.361 7.818
C1 -7.819 -11.361 5.353
C1 -11.361 -7.819 5.353
C1 -11.361 -5.353 7.818
C1 -7.819 -7.819 1.809
C1 -5.353 -5.353 1.809
C1 -5.353 -1.809 5.353
C1 -7.819 -1.809 7.818
C1 -1.809 -5.353 5.353
C1 -7.819 -5.353 11.362
C1 -1.809 -7.819 -7.819
C1 -5.353 -7.819 -11.361
C1 -5.353 -11.361 -7.819
C1 -7.819 -11.361 -5.353
C1 -11.361 -7.819 -5.353
C1 -11.361 -5.353 -7.819
C1 -7.819 -7.819 -1.809
C1 -5.353 -5.353 -1.809
C1 -5.353 -1.809 -5.353
C1 -7.819 -1.809 -7.819
C1 -1.809 -5.353 -5.353
C1 -7.819 -5.353 -11.361
C1 -1.809 7.818 -7.819
C1 -5.353 7.818 -11.361
C1 -5.353 11.362 -7.819
C1 -7.819 11.362 -5.353
C1 -11.361 7.818 -5.353
C1 -11.361 5.353 -7.819
C1 -7.819 7.818 -1.809
C1 -5.353 5.353 -1.809
C1 -5.353 1.809 -5.353
C1 -7.819 1.809 -7.819
C1 -1.809 5.353 -5.353
C1 -7.819 5.353 -11.361
C1 -1.809 7.818 7.818
C1 -5.353 7.818 11.362
C1 -5.353 11.362 7.818
C1 -7.819 11.362 5.353
C1 -11.361 7.818 5.353
C1 -11.361 5.353 7.818
C1 -7.819 7.818 1.809
C1 -5.353 5.353 1.809
C1 -5.353 1.809 5.353
C1 -7.819 1.809 7.818
C1 -1.809 5.353 5.353
C1 -7.819 5.353 11.362
C2 2.976 -8.482 8.482
C2 4.690 -8.482 10.194
C2 4.690 -10.194 8.482
C2 8.482 -10.194 4.690
C2 8.482 -8.482 2.976
C2 10.194 -8.482 4.690
C2 4.690 -4.690 2.976
C2 4.690 -2.976 4.690
C2 2.976 -4.690 4.690
C2 8.482 -2.976 8.482
C2 8.482 -4.690 10.194
C2 10.194 -4.690 8.482
C2 2.976 -8.482 -8.482
C2 4.690 -8.482 -10.194
C2 4.690 -10.194 -8.482
C2 8.482 -10.194 -4.690
C2 8.482 -8.482 -2.976
C2 10.194 -8.482 -4.690
C2 4.690 -4.690 -2.976
C2 4.690 -2.976 -4.690
C2 2.976 -4.690 -4.690
C2 8.482 -2.976 -8.482
C2 8.482 -4.690 -10.194
C2 10.194 -4.690 -8.482
C2 2.976 8.482 -8.482
C2 4.690 8.482 -10.194
C2 4.690 10.194 -8.482
C2 8.482 10.194 -4.690
C2 8.482 8.482 -2.976
C2 10.194 8.482 -4.690
C2 4.690 4.690 -2.976
C2 4.690 2.976 -4.690
C2 2.976 4.690 -4.690
C2 8.482 2.976 -8.482
C2 8.482 4.690 -10.194
C2 10.194 4.690 -8.482
C2 2.976 8.482 8.482
C2 4.690 8.482 10.194
C2 4.690 10.194 8.482
C2 8.482 10.194 4.690
C2 8.482 8.482 2.976
C2 10.194 8.482 4.690
C2 4.690 4.690 2.976
C2 4.690 2.976 4.690
C2 2.976 4.690 4.690
C2 8.482 2.976 8.482
C2 8.482 4.690 10.194
C2 10.194 4.690 8.482
C2 -2.976 -8.482 8.482
C2 -4.690 -8.482 10.194
C2 -4.690 -10.194 8.482
C2 -8.482 -10.194 4.690
C2 -8.482 -8.482 2.976
C2 -10.194 -8.482 4.690
C2 -4.690 -4.690 2.976
C2 -4.690 -2.976 4.690
C2 -2.976 -4.690 4.690
C2 -8.482 -2.976 8.482
C2 -8.482 -4.690 10.194
C2 -10.194 -4.690 8.482
C2 -2.976 -8.482 -8.482
C2 -4.690 -8.482 -10.194
C2 -4.690 -10.194 -8.482
C2 -8.482 -10.194 -4.690
C2 -8.482 -8.482 -2.976
C2 -10.194 -8.482 -4.690
C2 -4.690 -4.690 -2.976
C2 -4.690 -2.976 -4.690
C2 -2.976 -4.690 -4.690
C2 -8.482 -2.976 -8.482
C2 -8.482 -4.690 -10.194
C2 -10.194 -4.690 -8.482
C2 -2.976 8.482 -8.482
C2 -4.690 8.482 -10.194
C2 -4.690 10.194 -8.482
C2 -8.482 10.194 -4.690
C2 -8.482 8.482 -2.976
C2 -10.194 8.482 -4.690
C2 -4.690 4.690 -2.976
C2 -4.690 2.976 -4.690
C2 -2.976 4.690 -4.690
C2 -8.482 2.976 -8.482
C2 -8.482 4.690 -10.194
C2 -10.194 4.690 -8.482
C2 -2.976 8.482 8.482
C2 -4.690 8.482 10.194
C2 -4.690 10.194 8.482
C2 -8.482 10.194 4.690
C2 -8.482 8.482 2.976
C2 -10.194 8.482 4.690
C2 -4.690 4.690 2.976
C2 -4.690 2.976 4.690
C2 -2.976 4.690 4.690
C2 -8.482 2.976 8.482
C2 -8.482 4.690 10.194
C2 -10.194 4.690 8.482
C3 3.543 -9.628 7.918
C3 3.543 -7.918 9.629
C3 5.252 -9.628 9.629
C3 7.918 -9.628 3.543
C3 9.629 -7.918 3.543
C3 9.629 -9.628 5.252
C3 5.252 -3.543 3.543
C3 3.543 -3.543 5.252
C3 3.543 -5.253 3.543
C3 7.918 -3.543 9.629
C3 9.629 -5.253 9.629
C3 9.629 -3.543 7.918
C3 3.543 -9.628 -7.918
C3 3.543 -7.918 -9.628
C3 5.252 -9.628 -9.628
C3 7.918 -9.628 -3.543
C3 9.629 -7.918 -3.543
C3 9.629 -9.628 -5.253
C3 5.252 -3.543 -3.543
C3 3.543 -3.543 -5.253
C3 3.543 -5.253 -3.543
C3 7.918 -3.543 -9.628
C3 9.629 -5.253 -9.628
C3 9.629 -3.543 -7.918
C3 3.543 9.629 -7.918
C3 3.543 7.918 -9.628
C3 5.252 9.629 -9.628
C3 7.918 9.629 -3.543
C3 9.629 7.918 -3.543
C3 9.629 9.629 -5.253
C3 5.252 3.543 -3.543
C3 3.543 3.543 -5.253
C3 3.543 5.252 -3.543
C3 7.918 3.543 -9.628
C3 9.629 5.252 -9.628
C3 9.629 3.543 -7.918
C3 3.543 9.629 7.918
C3 3.543 7.918 9.629
C3 5.252 9.629 9.629
C3 7.918 9.629 3.543
C3 9.629 7.918 3.543
C3 9.629 9.629 5.252
C3 5.252 3.543 3.543
C3 3.543 3.543 5.252
C3 3.543 5.252 3.543
C3 7.918 3.543 9.629
C3 9.629 5.252 9.629
C3 9.629 3.543 7.918
C3 -3.543 -9.628 7.918
C3 -3.543 -7.918 9.629
C3 -5.253 -9.628 9.629
C3 -7.918 -9.628 3.543
C3 -9.628 -7.918 3.543
C3 -9.628 -9.628 5.252
C3 -5.253 -3.543 3.543
C3 -3.543 -3.543 5.252
C3 -3.543 -5.253 3.543
C3 -7.918 -3.543 9.629
C3 -9.628 -5.253 9.629
C3 -9.628 -3.543 7.918
C3 -3.543 -9.628 -7.918
C3 -3.543 -7.918 -9.628
C3 -5.253 -9.628 -9.628
C3 -7.918 -9.628 -3.543
C3 -9.628 -7.918 -3.543
C3 -9.628 -9.628 -5.253
C3 -5.253 -3.543 -3.543
C3 -3.543 -3.543 -5.253
C3 -3.543 -5.253 -3.543
C3 -7.918 -3.543 -9.628
C3 -9.628 -5.253 -9.628
C3 -9.628 -3.543 -7.918
C3 -3.543 9.629 -7.918
C3 -3.543 7.918 -9.628
C3 -5.253 9.629 -9.628
C3 -7.918 9.629 -3.543
C3 -9.628 7.918 -3.543
C3 -9.628 9.629 -5.253
C3 -5.253 3.543 -3.543
C3 -3.543 3.543 -5.253
C3 -3.543 5.252 -3.543
C3 -7.918 3.543 -9.628
C3 -9.628 5.252 -9.628
C3 -9.628 3.543 -7.918
C3 -3.543 9.629 7.918
C3 -3.543 7.918 9.629
C3 -5.253 9.629 9.629
C3 -7.918 9.629 3.543
C3 -9.628 7.918 3.543
C3 -9.628 9.629 5.252
C3 -5.253 3.543 3.543
C3 -3.543 3.543 5.252
C3 -3.543 5.252 3.543
C3 -7.918 3.543 9.629
C3 -9.628 5.252 9.629
C3 -9.628 3.543 7.918
O1 1.377 -8.341 6.766
O1 1.377 -6.766 8.342
O1 6.405 -8.341 11.795
O1 4.830 -11.796 6.766
O1 6.766 -11.796 4.830
O1 8.342 -11.796 6.405
O1 6.405 -11.796 8.342
O1 11.795 -8.341 6.405
O1 11.795 -6.404 8.342
O1 11.795 -4.831 6.766
O1 11.795 -6.766 4.830
O1 6.766 -8.341 1.377
O1 4.830 -6.404 1.377
O1 4.830 -1.377 6.405
O1 6.766 -1.377 8.342
O1 8.342 -1.377 6.766
O1 6.405 -1.377 4.830
O1 1.377 -4.831 6.405
O1 6.766 -4.831 11.795
O1 8.342 -6.404 11.795
O1 8.342 -6.766 1.377
O1 6.405 -4.831 1.377
O1 1.377 -6.404 4.830
O1 4.830 -6.766 11.795
O1 1.377 -8.341 -6.766
O1 1.377 -6.766 -8.341
O1 6.405 -8.341 -11.796
O1 4.830 -11.796 -6.766
O1 6.766 -11.796 -4.831
O1 8.342 -11.796 -6.404
O1 6.405 -11.796 -8.341
O1 11.795 -8.341 -6.404
O1 11.795 -6.404 -8.341
O1 11.795 -4.831 -6.766
O1 11.795 -6.766 -4.831
O1 6.766 -8.341 -1.377
O1 4.830 -6.404 -1.377
O1 4.830 -1.377 -6.404
O1 6.766 -1.377 -8.341
O1 8.342 -1.377 -6.766
O1 6.405 -1.377 -4.831
O1 1.377 -4.831 -6.404
O1 6.766 -4.831 -11.796
O1 8.342 -6.404 -11.796
O1 8.342 -6.766 -1.377
O1 6.405 -4.831 -1.377
O1 1.377 -6.404 -4.831
O1 4.830 -6.766 -11.796
O1 1.377 8.342 -6.766
O1 1.377 6.766 -8.341
O1 6.405 8.342 -11.796
O1 4.830 11.795 -6.766
O1 6.766 11.795 -4.831
O1 8.342 11.795 -6.404
O1 6.405 11.795 -8.341
O1 11.795 8.342 -6.404
O1 11.795 6.405 -8.341
O1 11.795 4.830 -6.766
O1 11.795 6.766 -4.831
O1 6.766 8.342 -1.377
O1 4.830 6.405 -1.377
O1 4.830 1.377 -6.404
O1 6.766 1.377 -8.341
O1 8.342 1.377 -6.766
O1 6.405 1.377 -4.831
O1 1.377 4.830 -6.404
O1 6.766 4.830 -11.796
O1 8.342 6.405 -11.796
O1 8.342 6.766 -1.377
O1 6.405 4.830 -1.377
O1 1.377 6.405 -4.831
O1 4.830 6.766 -11.796
O1 1.377 8.342 6.766
O1 1.377 6.766 8.342
O1 6.405 8.342 11.795
O1 4.830 11.795 6.766
O1 6.766 11.795 4.830
O1 8.342 11.795 6.405
O1 6.405 11.795 8.342
O1 11.795 8.342 6.405
O1 11.795 6.405 8.342
O1 11.795 4.830 6.766
O1 11.795 6.766 4.830
O1 6.766 8.342 1.377
O1 4.830 6.405 1.377
O1 4.830 1.377 6.405
O1 6.766 1.377 8.342
O1 8.342 1.377 6.766
O1 6.405 1.377 4.830
O1 1.377 4.830 6.405
O1 6.766 4.830 11.795
O1 8.342 6.405 11.795
O1 8.342 6.766 1.377
O1 6.405 4.830 1.377
O1 1.377 6.405 4.830
O1 4.830 6.766 11.795
O1 -1.377 -8.341 6.766
O1 -1.377 -6.766 8.342
O1 -6.404 -8.341 11.795
O1 -4.831 -11.796 6.766
O1 -6.766 -11.796 4.830
O1 -8.341 -11.796 6.405
O1 -6.404 -11.796 8.342
O1 -11.796 -8.341 6.405
O1 -11.796 -6.404 8.342
O1 -11.796 -4.831 6.766
O1 -11.796 -6.766 4.830
O1 -6.766 -8.341 1.377
O1 -4.831 -6.404 1.377
O1 -4.831 -1.377 6.405
O1 -6.766 -1.377 8.342
O1 -8.341 -1.377 6.766
O1 -6.404 -1.377 4.830
O1 -1.377 -4.831 6.405
O1 -6.766 -4.831 11.795
O1 -8.341 -6.404 11.795
O1 -8.341 -6.766 1.377
O1 -6.404 -4.831 1.377
O1 -1.377 -6.404 4.830
O1 -4.831 -6.766 11.795
O1 -1.377 -8.341 -6.766
O1 -1.377 -6.766 -8.341
O1 -6.404 -8.341 -11.796
O1 -4.831 -11.796 -6.766
O1 -6.766 -11.796 -4.831
O1 -8.341 -11.796 -6.404
O1 -6.404 -11.796 -8.341
O1 -11.796 -8.341 -6.404
O1 -11.796 -6.404 -8.341
O1 -11.796 -4.831 -6.766
O1 -11.796 -6.766 -4.831
O1 -6.766 -8.341 -1.377
O1 -4.831 -6.404 -1.377
O1 -4.831 -1.377 -6.404
O1 -6.766 -1.377 -8.341
O1 -8.341 -1.377 -6.766
O1 -6.404 -1.377 -4.831
O1 -1.377 -4.831 -6.404
O1 -6.766 -4.831 -11.796
O1 -8.341 -6.404 -11.796
O1 -8.341 -6.766 -1.377
O1 -6.404 -4.831 -1.377
O1 -1.377 -6.404 -4.831
O1 -4.831 -6.766 -11.796
O1 -1.377 8.342 -6.766
O1 -1.377 6.766 -8.341
O1 -6.404 8.342 -11.796
O1 -4.831 11.795 -6.766
O1 -6.766 11.795 -4.831
O1 -8.341 11.795 -6.404
O1 -6.404 11.795 -8.341
O1 -11.796 8.342 -6.404
O1 -11.796 6.405 -8.341
O1 -11.796 4.830 -6.766
O1 -11.796 6.766 -4.831
O1 -6.766 8.342 -1.377
O1 -4.831 6.405 -1.377
O1 -4.831 1.377 -6.404
O1 -6.766 1.377 -8.341
O1 -8.341 1.377 -6.766
O1 -6.404 1.377 -4.831
O1 -1.377 4.830 -6.404
O1 -6.766 4.830 -11.796
O1 -8.341 6.405 -11.796
O1 -8.341 6.766 -1.377
O1 -6.404 4.830 -1.377
O1 -1.377 6.405 -4.831
O1 -4.831 6.766 -11.796
O1 -1.377 8.342 6.766
O1 -1.377 6.766 8.342
O1 -6.404 8.342 11.795
O1 -4.831 11.795 6.766
O1 -6.766 11.795 4.830
O1 -8.341 11.795 6.405
O1 -6.404 11.795 8.342
O1 -11.796 8.342 6.405
O1 -11.796 6.405 8.342
O1 -11.796 4.830 6.766
O1 -11.796 6.766 4.830
O1 -6.766 8.342 1.377
O1 -4.831 6.405 1.377
O1 -4.831 1.377 6.405
O1 -6.766 1.377 8.342
O1 -8.341 1.377 6.766
O1 -6.404 1.377 4.830
O1 -1.377 4.830 6.405
O1 -6.766 4.830 11.795
O1 -8.341 6.405 11.795
O1 -8.341 6.766 1.377
O1 -6.404 4.830 1.377
O1 -1.377 6.405 4.830
O1 -4.831 6.766 11.795
H1 10.016 -3.155 7.165
H1 3.156 -10.015 7.165
H1 3.156 -3.155 6.007
H1 10.016 -10.015 6.007
H1 6.007 -10.015 10.016
H1 7.165 -10.015 3.156
H1 3.156 -6.006 3.156
H1 3.156 -7.165 10.016
H1 10.016 -7.165 3.156
H1 10.016 -6.006 10.016
H1 7.165 -3.155 10.016
H1 6.007 -3.155 3.156
H1 10.016 -3.155 -7.165
H1 3.156 -10.015 -7.165
H1 3.156 -3.155 -6.006
H1 10.016 -10.015 -6.006
H1 6.007 -10.015 -10.015
H1 7.165 -10.015 -3.155
H1 3.156 -6.006 -3.155
H1 3.156 -7.165 -10.015
H1 10.016 -7.165 -3.155
H1 10.016 -6.006 -10.015
H1 7.165 -3.155 -10.015
H1 6.007 -3.155 -3.155
H1 10.016 3.156 -7.165
H1 3.156 10.016 -7.165
H1 3.156 3.156 -6.006
H1 10.016 10.016 -6.006
H1 6.007 10.016 -10.015
H1 7.165 10.016 -3.155
H1 3.156 6.007 -3.155
H1 3.156 7.165 -10.015
H1 10.016 7.165 -3.155
H1 10.016 6.007 -10.015
H1 7.165 3.156 -10.015
H1 6.007 3.156 -3.155
H1 10.016 3.156 7.165
H1 3.156 10.016 7.165
H1 3.156 3.156 6.007
H1 10.016 10.016 6.007
H1 6.007 10.016 10.016
H1 7.165 10.016 3.156
H1 3.156 6.007 3.156
H1 3.156 7.165 10.016
H1 10.016 7.165 3.156
H1 10.016 6.007 10.016
H1 7.165 3.156 10.016
H1 6.007 3.156 3.156
H1 -10.015 -3.155 7.165
H1 -3.155 -10.015 7.165
H1 -3.155 -3.155 6.007
H1 -10.015 -10.015 6.007
H1 -6.006 -10.015 10.016
H1 -7.165 -10.015 3.156
H1 -3.155 -6.006 3.156
H1 -3.155 -7.165 10.016
H1 -10.015 -7.165 3.156
H1 -10.015 -6.006 10.016
H1 -7.165 -3.155 10.016
H1 -6.006 -3.155 3.156
H1 -10.015 -3.155 -7.165
H1 -3.155 -10.015 -7.165
H1 -3.155 -3.155 -6.006
H1 -10.015 -10.015 -6.006
H1 -6.006 -10.015 -10.015
H1 -7.165 -10.015 -3.155
H1 -3.155 -6.006 -3.155
H1 -3.155 -7.165 -10.015
H1 -10.015 -7.165 -3.155
H1 -10.015 -6.006 -10.015
H1 -7.165 -3.155 -10.015
H1 -6.006 -3.155 -3.155
H1 -10.015 3.156 -7.165
H1 -3.155 10.016 -7.165
H1 -3.155 3.156 -6.006
H1 -10.015 10.016 -6.006
H1 -6.006 10.016 -10.015
H1 -7.165 10.016 -3.155
H1 -3.155 6.007 -3.155
H1 -3.155 7.165 -10.015
H1 -10.015 7.165 -3.155
H1 -10.015 6.007 -10.015
H1 -7.165 3.156 -10.015
H1 -6.006 3.156 -3.155
H1 -10.015 3.156 7.165
H1 -3.155 10.016 7.165
H1 -3.155 3.156 6.007
H1 -10.015 10.016 6.007
H1 -6.006 10.016 10.016
H1 -7.165 10.016 3.156
H1 -3.155 6.007 3.156
H1 -3.155 7.165 10.016
H1 -10.015 7.165 3.156
H1 -10.015 6.007 10.016
H1 -7.165 3.156 10.016
H1 -6.006 3.156 3.156